Version 4
SHEET 1 1588 680
WIRE 752 -80 560 -80
WIRE 752 0 752 -80
WIRE 752 208 752 64
WIRE 560 224 560 -80
WIRE 768 288 768 272
WIRE 848 288 768 288
WIRE 944 288 848 288
WIRE 1072 288 1024 288
WIRE 1168 288 1072 288
WIRE 1312 288 1248 288
WIRE 848 304 848 288
WIRE 560 384 560 304
WIRE 736 384 736 272
WIRE 736 384 560 384
WIRE 848 384 848 368
WIRE 848 384 736 384
WIRE 1072 384 1072 368
WIRE 1072 384 848 384
WIRE 1312 384 1312 288
WIRE 1312 384 1072 384
WIRE 560 416 560 384
FLAG 560 416 0
FLAG 848 288 VC1
SYMBOL AutoGenerated\\NX6008NBK 752 240 R90
SYMATTR InstName U1
SYMBOL voltage 560 208 R0
WINDOW 123 0 0 Left 0
WINDOW 39 0 0 Left 0
SYMATTR InstName V1
SYMATTR Value 12
SYMBOL voltage 1152 288 R270
WINDOW 0 32 56 VTop 2
WINDOW 3 84 59 VBottom 2
WINDOW 123 0 0 Left 0
WINDOW 39 0 0 Left 0
SYMATTR InstName V2
SYMATTR Value PWL(0 0.0 0.9999 0.0 1 3.3)
SYMBOL res 1040 272 R90
WINDOW 0 0 56 VBottom 2
WINDOW 3 32 56 VTop 2
SYMATTR InstName R1
SYMATTR Value 250k
SYMBOL cap 832 304 R0
SYMATTR InstName C1
SYMATTR Value 10µ
SYMBOL cap 736 0 R0
SYMATTR InstName C2
SYMATTR Value 1m
SYMATTR SpiceLine Rser=0 Rpar=100k
SYMBOL res 1056 272 R0
SYMATTR InstName R2
SYMATTR Value 10k
TEXT 528 440 Left 2 !.tran 5
TEXT 808 408 Left 2 !.ic V(C1)=0
TEXT 824 -72 Left 2 !.ic V(C2)=0
