Version 4
SHEET 1 1472 836
WIRE 160 80 16 80
WIRE 416 80 240 80
WIRE 544 80 416 80
WIRE 544 112 528 112
WIRE 416 128 416 80
WIRE 704 128 672 128
WIRE 16 160 16 80
WIRE 528 256 528 112
WIRE 576 256 528 256
WIRE 704 256 704 128
WIRE 704 256 656 256
WIRE -192 272 -192 240
WIRE 16 272 16 240
WIRE 16 272 -192 272
WIRE 416 272 416 208
WIRE 528 288 528 256
WIRE 416 304 416 272
WIRE -192 320 -192 272
WIRE 16 320 16 272
WIRE 528 400 528 368
WIRE 1104 512 992 512
WIRE 1104 544 1104 512
WIRE 992 624 992 512
WIRE 1104 656 1104 624
WIRE 1264 656 1104 656
WIRE 1264 688 1216 688
WIRE 1104 704 1104 656
WIRE 1440 704 1392 704
WIRE 1216 768 1216 688
WIRE 1232 768 1216 768
WIRE 1440 768 1440 704
WIRE 1440 768 1232 768
WIRE 992 800 992 704
WIRE 1104 800 1104 784
WIRE 1104 800 992 800
WIRE 1104 816 1104 800
FLAG 16 320 0
FLAG -192 160 +12V
FLAG -192 400 -12V
FLAG 672 64 +12V
FLAG 672 96 -12V
FLAG 528 400 0
FLAG 1104 816 0
FLAG 1232 768 V_Bias
FLAG 1392 640 +12V
FLAG 1392 672 -12V
FLAG 416 272 V_Bias
SYMBOL voltage 16 144 R0
WINDOW 123 0 0 Left 0
WINDOW 39 0 0 Left 0
SYMATTR InstName V1
SYMATTR Value SINE(0 10 10e3)
SYMBOL voltage -192 144 R0
WINDOW 123 0 0 Left 0
WINDOW 39 0 0 Left 0
SYMATTR InstName V2
SYMATTR Value 12
SYMBOL voltage -192 304 R0
WINDOW 123 0 0 Left 0
WINDOW 39 0 0 Left 0
SYMATTR InstName V3
SYMATTR Value 12
SYMBOL AutoGenerated\\OPA167x 608 96 R0
SYMATTR InstName U1
SYMBOL res 256 64 R90
WINDOW 0 0 56 VBottom 2
WINDOW 3 32 56 VTop 2
SYMATTR InstName R1
SYMATTR Value 60k
SYMBOL res 432 224 R180
WINDOW 0 36 76 Left 2
WINDOW 3 36 40 Left 2
SYMATTR InstName R2
SYMATTR Value 10k
SYMBOL res 560 272 R270
WINDOW 0 32 56 VTop 2
WINDOW 3 0 56 VBottom 2
SYMATTR InstName R3
SYMATTR Value 10k
SYMBOL res 512 272 R0
SYMATTR InstName R4
SYMATTR Value 60k
SYMBOL AutoGenerated\\OPA167x 1328 672 R0
SYMATTR InstName U2
SYMBOL res 1088 528 R0
SYMATTR InstName R7
SYMATTR Value 220
SYMBOL res 1088 688 R0
SYMATTR InstName R8
SYMATTR Value 220
SYMBOL voltage 992 608 R0
WINDOW 123 0 0 Left 0
WINDOW 39 0 0 Left 0
SYMATTR InstName V4
SYMATTR Value 3.33
TEXT -224 504 Left 2 !.tran 0 10m 9m
