Version 4
SHEET 1 880 680
WIRE 336 -64 256 -64
WIRE 432 -64 336 -64
WIRE 288 -32 -160 -32
WIRE 336 -16 336 -64
WIRE 288 96 288 -32
WIRE 336 96 336 64
WIRE 336 96 288 96
WIRE 432 96 432 -64
WIRE 336 112 336 96
WIRE 256 144 256 -64
WIRE 256 144 240 144
WIRE -160 160 -160 -32
WIRE 32 160 -160 160
WIRE 288 176 288 96
WIRE 288 176 240 176
WIRE 336 208 336 192
WIRE 336 208 240 208
WIRE -160 224 -160 160
WIRE 32 224 -160 224
WIRE 288 240 240 240
WIRE 720 240 288 240
WIRE -160 256 -160 224
WIRE -96 256 -160 256
WIRE 32 256 -16 256
WIRE 288 272 288 240
WIRE 288 272 240 272
WIRE 720 272 720 240
WIRE 288 304 240 304
WIRE 432 304 432 176
WIRE 432 304 288 304
WIRE 512 304 432 304
WIRE 288 336 288 304
WIRE 288 336 240 336
WIRE -1520 352 -1520 272
WIRE -160 352 -160 256
WIRE -96 352 -160 352
WIRE 32 352 -32 352
WIRE 272 368 240 368
WIRE 272 384 272 368
WIRE 720 400 720 352
WIRE -1520 480 -1520 432
FLAG -1520 480 0
FLAG -1520 272 +24V
FLAG 512 304 +24V
FLAG 272 384 0
FLAG 720 400 0
SYMBOL AutoGenerated\\TPS26600_TRANS 128 240 R0
SYMATTR InstName U1
SYMBOL voltage -1520 336 R0
WINDOW 123 0 0 Left 0
WINDOW 39 0 0 Left 0
SYMATTR InstName V1
SYMATTR Value 24
SYMBOL res 704 256 R0
SYMATTR InstName R1
SYMATTR Value 100
SYMBOL res 320 96 R0
SYMATTR InstName R2
SYMATTR Value 4.9k
SYMBOL res 320 -32 R0
SYMATTR InstName R3
SYMATTR Value 5.76k
SYMBOL res 416 80 R0
SYMATTR InstName R4
SYMATTR Value 115k
SYMBOL res 0 240 R90
WINDOW 0 0 56 VBottom 2
WINDOW 3 32 56 VTop 2
SYMATTR InstName R5
SYMATTR Value 11.8k
SYMBOL cap -32 336 R90
WINDOW 0 0 32 VBottom 2
WINDOW 3 32 32 VTop 2
SYMATTR InstName C1
SYMATTR Value 100n
